
  ACD/LABS07292514102D

 31 34  0  0  0  0  0  0  0  0  1 V2000
   14.9682   -5.1083    0.0000 C   0  0  0  0  0  0  0  0  0  0  0  0
   15.9566   -5.9982    0.0000 C   0  0  0  0  0  0  0  0  0  0  0  0
   15.8176   -7.3209    0.0000 C   0  0  0  0  0  0  0  0  0  0  0  0
   17.0326   -7.8619    0.0000 O   0  0  0  0  0  0  0  0  0  0  0  0
   17.9226   -6.8735    0.0000 C   0  0  0  0  0  0  0  0  0  0  0  0
   17.2576   -5.7217    0.0000 C   0  0  0  0  0  0  0  0  0  0  0  0
   17.9226   -4.5699    0.0000 C   0  0  0  0  0  0  0  0  0  0  0  0
   17.2576   -3.4181    0.0000 O   0  0  0  0  0  0  0  0  0  0  0  0
   19.2526   -4.5699    0.0000 O   0  0  0  0  0  0  0  0  0  0  0  0
   19.9176   -5.7217    0.0000 C   0  0  0  0  0  0  0  0  0  0  0  0
   19.2526   -6.8735    0.0000 C   0  0  0  0  0  0  0  0  0  0  0  0
   19.9176   -8.0253    0.0000 C   0  0  0  0  0  0  0  0  0  0  0  0
   21.2476   -8.0253    0.0000 C   0  0  0  0  0  0  0  0  0  0  0  0
   21.9126   -6.8735    0.0000 C   0  0  0  0  0  0  0  0  0  0  0  0
   21.2476   -5.7217    0.0000 C   0  0  0  0  0  0  0  0  0  0  0  0
   21.9126   -4.5699    0.0000 C   0  0  0  0  0  0  0  0  0  0  0  0
   23.2426   -4.5699    0.0000 C   0  0  0  0  0  0  0  0  0  0  0  0
   23.9076   -5.7217    0.0000 C   0  0  0  0  0  0  0  0  0  0  0  0
   23.2426   -6.8735    0.0000 C   0  0  0  0  0  0  0  0  0  0  0  0
   23.9076   -8.0253    0.0000 C   0  0  0  0  0  0  0  0  0  0  0  0
   14.0783   -6.0966    0.0000 H   0  0  0  0  0  0  0  0  0  0  0  0
   15.8582   -4.1199    0.0000 H   0  0  0  0  0  0  0  0  0  0  0  0
   13.9798   -4.2183    0.0000 H   0  0  0  0  0  0  0  0  0  0  0  0
   14.6658   -7.9859    0.0000 H   0  0  0  0  0  0  0  0  0  0  0  0
   19.2526   -9.1771    0.0000 H   0  0  0  0  0  0  0  0  0  0  0  0
   21.9126   -9.1771    0.0000 H   0  0  0  0  0  0  0  0  0  0  0  0
   21.2476   -3.4181    0.0000 H   0  0  0  0  0  0  0  0  0  0  0  0
   23.9076   -3.4181    0.0000 H   0  0  0  0  0  0  0  0  0  0  0  0
   25.2376   -5.7217    0.0000 H   0  0  0  0  0  0  0  0  0  0  0  0
   25.2376   -8.0253    0.0000 C   0  0  0  0  0  0  0  0  0  0  0  0
   23.2426   -9.1771    0.0000 C   0  0  0  0  0  0  0  0  0  0  0  0
  1  2  1  0  0  0  0
  1 21  1  0  0  0  0
  1 22  1  0  0  0  0
  1 23  1  0  0  0  0
  2  3  2  0  0  0  0
  2  6  1  0  0  0  0
  3  4  1  0  0  0  0
  3 24  1  0  0  0  0
  4  5  1  0  0  0  0
  5  6  2  0  0  0  0
  5 11  1  0  0  0  0
  6  7  1  0  0  0  0
  7  8  2  0  0  0  0
  7  9  1  0  0  0  0
  9 10  1  0  0  0  0
 10 11  2  0  0  0  0
 10 15  1  0  0  0  0
 11 12  1  0  0  0  0
 12 13  2  0  0  0  0
 12 25  1  0  0  0  0
 13 14  1  0  0  0  0
 13 26  1  0  0  0  0
 14 15  2  0  0  0  0
 14 19  1  0  0  0  0
 15 16  1  0  0  0  0
 16 17  2  0  0  0  0
 16 27  1  0  0  0  0
 17 18  1  0  0  0  0
 17 28  1  0  0  0  0
 18 19  2  0  0  0  0
 18 29  1  0  0  0  0
 19 20  1  0  0  0  0
 20 30  1  0  0  0  0
 20 31  1  0  0  0  0
M  END
