2.mol
 OpenBabel11172323223D

 35 38  0  0  0  0  0  0  0  0999 V2000
    2.3667    3.1022    0.9422 C   0  0  0  0  0  0  0  0  0  0  0  0
    3.2724    1.9390    1.1878 C   0  0  0  0  0  0  0  0  0  0  0  0
    3.4132    0.8081    0.3928 C   0  0  0  0  0  0  0  0  0  0  0  0
    4.3071   -0.0064    0.9270 O   0  0  0  0  0  0  0  0  0  0  0  0
    4.7490    0.5504    2.0329 C   0  0  0  0  0  0  0  0  0  0  0  0
    4.1418    1.7544    2.2400 C   0  0  0  0  0  0  0  0  0  0  0  0
    4.4636    2.5208    3.3592 C   0  0  0  0  0  0  0  0  0  0  0  0
    3.9328    3.5981    3.5608 O   0  0  0  0  0  0  0  0  0  0  0  0
    5.3737    2.0499    4.2161 O   0  0  0  0  0  0  0  0  0  0  0  0
    5.9963    0.8696    4.0538 C   0  0  0  0  0  0  0  0  0  0  0  0
    5.6975    0.0609    2.9282 C   0  0  0  0  0  0  0  0  0  0  0  0
    6.3408   -1.1623    2.7438 C   0  0  0  0  0  0  0  0  0  0  0  0
    7.2825   -1.6025    3.6736 C   0  0  0  0  0  0  0  0  0  0  0  0
    7.5999   -0.8312    4.8143 C   0  0  0  0  0  0  0  0  0  0  0  0
    6.9501    0.4259    4.9934 C   0  0  0  0  0  0  0  0  0  0  0  0
    7.2696    1.2211    6.1066 C   0  0  0  0  0  0  0  0  0  0  0  0
    8.2189    0.7956    7.0296 C   0  0  0  0  0  0  0  0  0  0  0  0
    8.8582   -0.4298    6.8670 C   0  0  0  0  0  0  0  0  0  0  0  0
    8.5590   -1.2652    5.7760 C   0  0  0  0  0  0  0  0  0  0  0  0
    9.2857   -2.5950    5.6846 C   0  0  0  0  0  0  0  0  0  0  0  0
    8.3546   -3.7775    5.9665 C   0  0  0  0  0  0  0  0  0  0  0  0
    1.7895    2.9532    0.0054 H   0  0  0  0  0  0  0  0  0  0  0  0
    2.9685    4.0302    0.8497 H   0  0  0  0  0  0  0  0  0  0  0  0
    1.6567    3.2071    1.7888 H   0  0  0  0  0  0  0  0  0  0  0  0
    2.8806    0.6072   -0.5274 H   0  0  0  0  0  0  0  0  0  0  0  0
    6.1190   -1.7775    1.8799 H   0  0  0  0  0  0  0  0  0  0  0  0
    7.7607   -2.5496    3.4757 H   0  0  0  0  0  0  0  0  0  0  0  0
    6.7916    2.1801    6.2653 H   0  0  0  0  0  0  0  0  0  0  0  0
    8.4598    1.4198    7.8806 H   0  0  0  0  0  0  0  0  0  0  0  0
    9.5866   -0.7315    7.6097 H   0  0  0  0  0  0  0  0  0  0  0  0
   10.0912   -2.6495    6.4497 H   0  0  0  0  0  0  0  0  0  0  0  0
    9.7771   -2.6919    4.6934 H   0  0  0  0  0  0  0  0  0  0  0  0
    7.9299   -3.6857    6.9890 H   0  0  0  0  0  0  0  0  0  0  0  0
    8.9332   -4.7235    5.9098 H   0  0  0  0  0  0  0  0  0  0  0  0
    7.5151   -3.8438    5.2487 H   0  0  0  0  0  0  0  0  0  0  0  0
  1  2  1  0  0  0  0
  1 22  1  0  0  0  0
  1 23  1  0  0  0  0
  1 24  1  0  0  0  0
  2  3  2  0  0  0  0
  2  6  1  0  0  0  0
  3  4  1  0  0  0  0
  3 25  1  0  0  0  0
  4  5  1  0  0  0  0
  5  6  2  0  0  0  0
  5 11  1  0  0  0  0
  6  7  1  0  0  0  0
  7  8  2  0  0  0  0
  7  9  1  0  0  0  0
  9 10  1  0  0  0  0
 10 11  2  0  0  0  0
 10 15  1  0  0  0  0
 11 12  1  0  0  0  0
 12 13  2  0  0  0  0
 12 26  1  0  0  0  0
 13 14  1  0  0  0  0
 13 27  1  0  0  0  0
 14 15  2  0  0  0  0
 14 19  1  0  0  0  0
 15 16  1  0  0  0  0
 16 17  2  0  0  0  0
 16 28  1  0  0  0  0
 17 18  1  0  0  0  0
 17 29  1  0  0  0  0
 18 19  2  0  0  0  0
 18 30  1  0  0  0  0
 19 20  1  0  0  0  0
 20 21  1  0  0  0  0
 20 31  1  0  0  0  0
 20 32  1  0  0  0  0
 21 33  1  0  0  0  0
 21 34  1  0  0  0  0
 21 35  1  0  0  0  0
M  END
