
  ACD/LABS07292514102D

 38 41  0  0  0  0  0  0  0  0  1 V2000
   19.8240   -3.4897    0.0000 O   0  0  0  0  0  0  0  0  0  0  0  0
   19.8240   -4.8197    0.0000 C   0  0  0  0  0  0  0  0  0  0  0  0
   20.9758   -5.4847    0.0000 O   0  0  0  0  0  0  0  0  0  0  0  0
   20.9758   -6.8147    0.0000 C   0  0  0  0  0  0  0  0  0  0  0  0
   19.8240   -7.4797    0.0000 C   0  0  0  0  0  0  0  0  0  0  0  0
   19.8240   -8.8097    0.0000 C   0  0  0  0  0  0  0  0  0  0  0  0
   20.9758   -9.4747    0.0000 C   0  0  0  0  0  0  0  0  0  0  0  0
   22.1276   -8.8097    0.0000 C   0  0  0  0  0  0  0  0  0  0  0  0
   22.1276   -7.4797    0.0000 C   0  0  0  0  0  0  0  0  0  0  0  0
   23.2794   -6.8147    0.0000 C   0  0  0  0  0  0  0  0  0  0  0  0
   24.4312   -7.4797    0.0000 C   0  0  0  0  0  0  0  0  0  0  0  0
   24.4312   -8.8097    0.0000 C   0  0  0  0  0  0  0  0  0  0  0  0
   23.2794   -9.4747    0.0000 C   0  0  0  0  0  0  0  0  0  0  0  0
   23.2794  -10.8047    0.0000 C   0  0  0  0  0  0  0  0  0  0  0  0
   23.2794  -12.1347    0.0000 C   0  0  0  0  0  0  0  0  0  0  0  0
   23.2794  -13.4647    0.0000 C   0  0  0  0  0  0  0  0  0  0  0  0
   18.6721   -6.8147    0.0000 C   0  0  0  0  0  0  0  0  0  0  0  0
   17.4072   -7.2257    0.0000 O   0  0  0  0  0  0  0  0  0  0  0  0
   16.6255   -6.1497    0.0000 C   0  0  0  0  0  0  0  0  0  0  0  0
   17.4072   -5.0737    0.0000 C   0  0  0  0  0  0  0  0  0  0  0  0
   16.9963   -3.8088    0.0000 C   0  0  0  0  0  0  0  0  0  0  0  0
   18.6721   -5.4847    0.0000 C   0  0  0  0  0  0  0  0  0  0  0  0
   18.6721   -9.4747    0.0000 H   0  0  0  0  0  0  0  0  0  0  0  0
   20.9758  -10.8047    0.0000 H   0  0  0  0  0  0  0  0  0  0  0  0
   23.2794   -5.4847    0.0000 H   0  0  0  0  0  0  0  0  0  0  0  0
   25.5830   -6.8147    0.0000 H   0  0  0  0  0  0  0  0  0  0  0  0
   25.5830   -9.4747    0.0000 H   0  0  0  0  0  0  0  0  0  0  0  0
   21.9494  -10.8047    0.0000 H   0  0  0  0  0  0  0  0  0  0  0  0
   24.6094  -10.8047    0.0000 H   0  0  0  0  0  0  0  0  0  0  0  0
   24.6094  -12.1347    0.0000 H   0  0  0  0  0  0  0  0  0  0  0  0
   21.9494  -12.1347    0.0000 H   0  0  0  0  0  0  0  0  0  0  0  0
   24.6094  -13.4647    0.0000 H   0  0  0  0  0  0  0  0  0  0  0  0
   21.9494  -13.4647    0.0000 H   0  0  0  0  0  0  0  0  0  0  0  0
   23.2794  -14.7947    0.0000 H   0  0  0  0  0  0  0  0  0  0  0  0
   15.2955   -6.1497    0.0000 H   0  0  0  0  0  0  0  0  0  0  0  0
   18.2612   -3.3978    0.0000 H   0  0  0  0  0  0  0  0  0  0  0  0
   15.7313   -4.2198    0.0000 H   0  0  0  0  0  0  0  0  0  0  0  0
   16.5853   -2.5439    0.0000 H   0  0  0  0  0  0  0  0  0  0  0  0
  1  2  2  0  0  0  0
  2  3  1  0  0  0  0
  2 22  1  0  0  0  0
  3  4  1  0  0  0  0
  4  5  2  0  0  0  0
  4  9  1  0  0  0  0
  5  6  1  0  0  0  0
  5 17  1  0  0  0  0
  6  7  2  0  0  0  0
  6 23  1  0  0  0  0
  7  8  1  0  0  0  0
  7 24  1  0  0  0  0
  8  9  2  0  0  0  0
  8 13  1  0  0  0  0
  9 10  1  0  0  0  0
 10 11  2  0  0  0  0
 10 25  1  0  0  0  0
 11 12  1  0  0  0  0
 11 26  1  0  0  0  0
 12 13  2  0  0  0  0
 12 27  1  0  0  0  0
 13 14  1  0  0  0  0
 14 15  1  0  0  0  0
 14 28  1  0  0  0  0
 14 29  1  0  0  0  0
 15 16  1  0  0  0  0
 15 30  1  0  0  0  0
 15 31  1  0  0  0  0
 16 32  1  0  0  0  0
 16 33  1  0  0  0  0
 16 34  1  0  0  0  0
 17 18  1  0  0  0  0
 17 22  2  0  0  0  0
 18 19  1  0  0  0  0
 19 20  2  0  0  0  0
 19 35  1  0  0  0  0
 20 21  1  0  0  0  0
 20 22  1  0  0  0  0
 21 36  1  0  0  0  0
 21 37  1  0  0  0  0
 21 38  1  0  0  0  0
M  END
