
  ACD/LABS07292514042D

 33 36  0  0  0  0  0  0  0  0  1 V2000
   15.6612   -7.8114    0.0000 C   0  0  0  0  0  0  0  0  0  0  0  0
   16.9431   -7.8114    0.0000 O   0  0  0  0  0  0  0  0  0  0  0  0
   17.5841   -6.7012    0.0000 C   0  0  0  0  0  0  0  0  0  0  0  0
   16.9431   -5.5910    0.0000 C   0  0  0  0  0  0  0  0  0  0  0  0
   17.5841   -4.4809    0.0000 C   0  0  0  0  0  0  0  0  0  0  0  0
   18.8660   -4.4809    0.0000 C   0  0  0  0  0  0  0  0  0  0  0  0
   19.5070   -5.5910    0.0000 C   0  0  0  0  0  0  0  0  0  0  0  0
   20.7889   -5.5910    0.0000 C   0  0  0  0  0  0  0  0  0  0  0  0
   21.4299   -4.4809    0.0000 O   0  0  0  0  0  0  0  0  0  0  0  0
   22.7118   -4.4809    0.0000 C   0  0  0  0  0  0  0  0  0  0  0  0
   23.3528   -3.3707    0.0000 O   0  0  0  0  0  0  0  0  0  0  0  0
   23.3528   -5.5910    0.0000 C   0  0  0  0  0  0  0  0  0  0  0  0
   24.6067   -5.8576    0.0000 C   0  0  0  0  0  0  0  0  0  0  0  0
   25.5593   -4.9998    0.0000 C   0  0  0  0  0  0  0  0  0  0  0  0
   24.7407   -7.1325    0.0000 C   0  0  0  0  0  0  0  0  0  0  0  0
   23.5696   -7.6539    0.0000 O   0  0  0  0  0  0  0  0  0  0  0  0
   22.7118   -6.7012    0.0000 C   0  0  0  0  0  0  0  0  0  0  0  0
   21.4299   -6.7012    0.0000 C   0  0  0  0  0  0  0  0  0  0  0  0
   20.7889   -7.8114    0.0000 C   0  0  0  0  0  0  0  0  0  0  0  0
   19.5070   -7.8114    0.0000 C   0  0  0  0  0  0  0  0  0  0  0  0
   18.8660   -6.7012    0.0000 C   0  0  0  0  0  0  0  0  0  0  0  0
   15.6612   -9.0933    0.0000 H   0  0  0  0  0  0  0  0  0  0  0  0
   15.6612   -6.5295    0.0000 H   0  0  0  0  0  0  0  0  0  0  0  0
   14.3793   -7.8114    0.0000 H   0  0  0  0  0  0  0  0  0  0  0  0
   15.6612   -5.5910    0.0000 H   0  0  0  0  0  0  0  0  0  0  0  0
   16.9431   -3.3707    0.0000 H   0  0  0  0  0  0  0  0  0  0  0  0
   19.5070   -3.3707    0.0000 H   0  0  0  0  0  0  0  0  0  0  0  0
   24.7016   -4.0471    0.0000 H   0  0  0  0  0  0  0  0  0  0  0  0
   26.4171   -5.9525    0.0000 H   0  0  0  0  0  0  0  0  0  0  0  0
   26.5120   -4.1420    0.0000 H   0  0  0  0  0  0  0  0  0  0  0  0
   25.8509   -7.7734    0.0000 H   0  0  0  0  0  0  0  0  0  0  0  0
   21.4299   -8.9216    0.0000 H   0  0  0  0  0  0  0  0  0  0  0  0
   18.8660   -8.9216    0.0000 H   0  0  0  0  0  0  0  0  0  0  0  0
  1  2  1  0  0  0  0
  1 22  1  0  0  0  0
  1 23  1  0  0  0  0
  1 24  1  0  0  0  0
  2  3  1  0  0  0  0
  3  4  2  0  0  0  0
  3 21  1  0  0  0  0
  4  5  1  0  0  0  0
  4 25  1  0  0  0  0
  5  6  2  0  0  0  0
  5 26  1  0  0  0  0
  6  7  1  0  0  0  0
  6 27  1  0  0  0  0
  7  8  2  0  0  0  0
  7 21  1  0  0  0  0
  8  9  1  0  0  0  0
  8 18  1  0  0  0  0
  9 10  1  0  0  0  0
 10 11  2  0  0  0  0
 10 12  1  0  0  0  0
 12 13  1  0  0  0  0
 12 17  2  0  0  0  0
 13 14  1  0  0  0  0
 13 15  2  0  0  0  0
 14 28  1  0  0  0  0
 14 29  1  0  0  0  0
 14 30  1  0  0  0  0
 15 16  1  0  0  0  0
 15 31  1  0  0  0  0
 16 17  1  0  0  0  0
 17 18  1  0  0  0  0
 18 19  2  0  0  0  0
 19 20  1  0  0  0  0
 19 32  1  0  0  0  0
 20 21  2  0  0  0  0
 20 33  1  0  0  0  0
M  END
