
  ACD/LABS07292514032D

 33 36  0  0  0  0  0  0  0  0  1 V2000
   15.6217   -7.9248    0.0000 C   0  0  0  0  0  0  0  0  0  0  0  0
   16.8623   -7.6967    0.0000 O   0  0  0  0  0  0  0  0  0  0  0  0
   17.4735   -6.6008    0.0000 C   0  0  0  0  0  0  0  0  0  0  0  0
   16.9286   -5.4515    0.0000 C   0  0  0  0  0  0  0  0  0  0  0  0
   17.6366   -4.3841    0.0000 C   0  0  0  0  0  0  0  0  0  0  0  0
   18.8959   -4.4454    0.0000 C   0  0  0  0  0  0  0  0  0  0  0  0
   19.4602   -5.5820    0.0000 C   0  0  0  0  0  0  0  0  0  0  0  0
   20.7325   -5.6009    0.0000 C   0  0  0  0  0  0  0  0  0  0  0  0
   21.3612   -4.5067    0.0000 O   0  0  0  0  0  0  0  0  0  0  0  0
   22.6378   -4.4813    0.0000 C   0  0  0  0  0  0  0  0  0  0  0  0
   23.0583   -3.2798    0.0000 O   0  0  0  0  0  0  0  0  0  0  0  0
   23.2781   -5.5586    0.0000 C   0  0  0  0  0  0  0  0  0  0  0  0
   24.5451   -5.8172    0.0000 C   0  0  0  0  0  0  0  0  0  0  0  0
   25.5314   -5.0092    0.0000 C   0  0  0  0  0  0  0  0  0  0  0  0
   24.7012   -7.1014    0.0000 C   0  0  0  0  0  0  0  0  0  0  0  0
   23.5006   -7.6341    0.0000 O   0  0  0  0  0  0  0  0  0  0  0  0
   22.6285   -6.6836    0.0000 C   0  0  0  0  0  0  0  0  0  0  0  0
   21.3774   -6.7014    0.0000 C   0  0  0  0  0  0  0  0  0  0  0  0
   20.7035   -7.7789    0.0000 C   0  0  0  0  0  0  0  0  0  0  0  0
   19.4249   -7.7484    0.0000 C   0  0  0  0  0  0  0  0  0  0  0  0
   18.7670   -6.6539    0.0000 C   0  0  0  0  0  0  0  0  0  0  0  0
   14.3458   -8.2082    0.0000 C   0  0  0  0  0  0  0  0  0  0  0  0
   15.8025   -9.2163    0.0000 H   0  0  0  0  0  0  0  0  0  0  0  0
   15.1326   -6.7643    0.0000 H   0  0  0  0  0  0  0  0  0  0  0  0
   15.7157   -5.0552    0.0000 H   0  0  0  0  0  0  0  0  0  0  0  0
   17.0572   -3.2478    0.0000 H   0  0  0  0  0  0  0  0  0  0  0  0
   19.5434   -3.3506    0.0000 H   0  0  0  0  0  0  0  0  0  0  0  0
   26.5455   -4.1918    0.0000 H   0  0  0  0  0  0  0  0  0  0  0  0
   26.4715   -5.8928    0.0000 H   0  0  0  0  0  0  0  0  0  0  0  0
   24.8840   -3.9113    0.0000 H   0  0  0  0  0  0  0  0  0  0  0  0
   25.7069   -7.8395    0.0000 H   0  0  0  0  0  0  0  0  0  0  0  0
   21.3114   -8.8969    0.0000 H   0  0  0  0  0  0  0  0  0  0  0  0
   18.8141   -8.8659    0.0000 H   0  0  0  0  0  0  0  0  0  0  0  0
  1  2  1  0  0  0  0
  1 22  1  0  0  0  0
  1 23  1  0  0  0  0
  1 24  1  0  0  0  0
  2  3  1  0  0  0  0
  3  4  2  0  0  0  0
  3 21  1  0  0  0  0
  4  5  1  0  0  0  0
  4 25  1  0  0  0  0
  5  6  2  0  0  0  0
  5 26  1  0  0  0  0
  6  7  1  0  0  0  0
  6 27  1  0  0  0  0
  7  8  2  0  0  0  0
  7 21  1  0  0  0  0
  8  9  1  0  0  0  0
  8 18  1  0  0  0  0
  9 10  1  0  0  0  0
 10 11  2  0  0  0  0
 10 12  1  0  0  0  0
 12 13  1  0  0  0  0
 12 17  2  0  0  0  0
 13 14  1  0  0  0  0
 13 15  2  0  0  0  0
 14 28  1  0  0  0  0
 14 29  1  0  0  0  0
 14 30  1  0  0  0  0
 15 16  1  0  0  0  0
 15 31  1  0  0  0  0
 16 17  1  0  0  0  0
 17 18  1  0  0  0  0
 18 19  2  0  0  0  0
 19 20  1  0  0  0  0
 19 32  1  0  0  0  0
 20 21  2  0  0  0  0
 20 33  1  0  0  0  0
M  END
