25.mol
 OpenBabel11172323433D

 30 33  0  0  0  0  0  0  0  0999 V2000
    1.4022    0.3843   -0.1031 O   0  0  0  0  0  0  0  0  0  0  0  0
    2.6178    0.3148   -0.0850 C   0  0  0  0  0  0  0  0  0  0  0  0
    3.2223   -0.8764   -0.0801 O   0  0  0  0  0  0  0  0  0  0  0  0
    4.5582   -1.0238   -0.0605 C   0  0  0  0  0  0  0  0  0  0  0  0
    5.3964    0.1196   -0.0438 C   0  0  0  0  0  0  0  0  0  0  0  0
    6.7839   -0.0188   -0.0233 C   0  0  0  0  0  0  0  0  0  0  0  0
    7.3600   -1.2895   -0.0192 C   0  0  0  0  0  0  0  0  0  0  0  0
    6.5578   -2.4527   -0.0355 C   0  0  0  0  0  0  0  0  0  0  0  0
    7.1193   -3.7606   -0.0318 C   0  0  0  0  0  0  0  0  0  0  0  0
    8.4511   -3.9968   -0.0126 O   0  0  0  0  0  0  0  0  0  0  0  0
    6.2753   -4.8762   -0.0485 C   0  0  0  0  0  0  0  0  0  0  0  0
    4.8916   -4.7261   -0.0688 C   0  0  0  0  0  0  0  0  0  0  0  0
    4.3239   -3.4551   -0.0728 C   0  0  0  0  0  0  0  0  0  0  0  0
    5.1385   -2.3091   -0.0564 C   0  0  0  0  0  0  0  0  0  0  0  0
    4.7680    1.3630   -0.0488 C   0  0  0  0  0  0  0  0  0  0  0  0
    5.3199    2.5562   -0.0363 O   0  0  0  0  0  0  0  0  0  0  0  0
    4.3477    3.4521   -0.0478 C   0  0  0  0  0  0  0  0  0  0  0  0
    3.1158    2.8096   -0.0686 C   0  0  0  0  0  0  0  0  0  0  0  0
    1.7674    3.4539   -0.0867 C   0  0  0  0  0  0  0  0  0  0  0  0
    3.4075    1.4636   -0.0690 C   0  0  0  0  0  0  0  0  0  0  0  0
    7.4245    0.8550   -0.0106 H   0  0  0  0  0  0  0  0  0  0  0  0
    8.4374   -1.3321   -0.0031 H   0  0  0  0  0  0  0  0  0  0  0  0
    9.1389   -3.3217    0.0002 H   0  0  0  0  0  0  0  0  0  0  0  0
    6.6987   -5.8731   -0.0457 H   0  0  0  0  0  0  0  0  0  0  0  0
    4.2547   -5.6013   -0.0815 H   0  0  0  0  0  0  0  0  0  0  0  0
    3.2439   -3.3738   -0.0887 H   0  0  0  0  0  0  0  0  0  0  0  0
    4.5069    4.5223   -0.0416 H   0  0  0  0  0  0  0  0  0  0  0  0
    1.8659    4.5598   -0.0814 H   0  0  0  0  0  0  0  0  0  0  0  0
    1.1922    3.1400    0.8091 H   0  0  0  0  0  0  0  0  0  0  0  0
    1.2196    3.1464   -1.0018 H   0  0  0  0  0  0  0  0  0  0  0  0
  1  2  2  0  0  0  0
  2  3  1  0  0  0  0
  2 20  1  0  0  0  0
  3  4  1  0  0  0  0
  4  5  2  0  0  0  0
  4 14  1  0  0  0  0
  5  6  1  0  0  0  0
  5 15  1  0  0  0  0
  6  7  2  0  0  0  0
  6 21  1  0  0  0  0
  7  8  1  0  0  0  0
  7 22  1  0  0  0  0
  8  9  2  0  0  0  0
  8 14  1  0  0  0  0
  9 10  1  0  0  0  0
  9 11  1  0  0  0  0
 10 23  1  0  0  0  0
 11 12  2  0  0  0  0
 11 24  1  0  0  0  0
 12 13  1  0  0  0  0
 12 25  1  0  0  0  0
 13 14  2  0  0  0  0
 13 26  1  0  0  0  0
 15 16  1  0  0  0  0
 15 20  2  0  0  0  0
 16 17  1  0  0  0  0
 17 18  2  0  0  0  0
 17 27  1  0  0  0  0
 18 19  1  0  0  0  0
 18 20  1  0  0  0  0
 19 28  1  0  0  0  0
 19 29  1  0  0  0  0
 19 30  1  0  0  0  0
M  END
