
  ACD/LABS07292515112D

 37 40  0  0  0  0  0  0  0  0  1 V2000
   26.6491   -4.4097    0.0000 C   0  0  0  0  0  0  0  0  0  0  0  0
   25.7592   -5.3980    0.0000 C   0  0  0  0  0  0  0  0  0  0  0  0
   24.4364   -5.2592    0.0000 C   0  0  0  0  0  0  0  0  0  0  0  0
   23.8954   -6.4740    0.0000 O   0  0  0  0  0  0  0  0  0  0  0  0
   24.8838   -7.3641    0.0000 C   0  0  0  0  0  0  0  0  0  0  0  0
   26.0356   -6.6990    0.0000 C   0  0  0  0  0  0  0  0  0  0  0  0
   27.1874   -7.3641    0.0000 C   0  0  0  0  0  0  0  0  0  0  0  0
   28.3392   -6.6990    0.0000 O   0  0  0  0  0  0  0  0  0  0  0  0
   27.1874   -8.6940    0.0000 O   0  0  0  0  0  0  0  0  0  0  0  0
   26.0356   -9.3589    0.0000 C   0  0  0  0  0  0  0  0  0  0  0  0
   24.8838   -8.6940    0.0000 C   0  0  0  0  0  0  0  0  0  0  0  0
   23.7320   -9.3589    0.0000 C   0  0  0  0  0  0  0  0  0  0  0  0
   23.7320  -10.6890    0.0000 C   0  0  0  0  0  0  0  0  0  0  0  0
   24.8838  -11.3540    0.0000 C   0  0  0  0  0  0  0  0  0  0  0  0
   24.8838  -12.6840    0.0000 C   0  0  0  0  0  0  0  0  0  0  0  0
   26.0356  -13.3490    0.0000 C   0  0  0  0  0  0  0  0  0  0  0  0
   27.1874  -12.6840    0.0000 C   0  0  0  0  0  0  0  0  0  0  0  0
   27.1874  -11.3540    0.0000 C   0  0  0  0  0  0  0  0  0  0  0  0
   26.0356  -10.6890    0.0000 C   0  0  0  0  0  0  0  0  0  0  0  0
   25.6607   -3.5198    0.0000 H   0  0  0  0  0  0  0  0  0  0  0  0
   27.6374   -5.2997    0.0000 H   0  0  0  0  0  0  0  0  0  0  0  0
   27.5390   -3.4214    0.0000 H   0  0  0  0  0  0  0  0  0  0  0  0
   23.7714   -4.1073    0.0000 H   0  0  0  0  0  0  0  0  0  0  0  0
   22.5802   -8.6940    0.0000 H   0  0  0  0  0  0  0  0  0  0  0  0
   22.5802  -11.3540    0.0000 H   0  0  0  0  0  0  0  0  0  0  0  0
   26.0356  -14.6789    0.0000 H   0  0  0  0  0  0  0  0  0  0  0  0
   28.3392  -13.3490    0.0000 H   0  0  0  0  0  0  0  0  0  0  0  0
   28.3392  -10.6890    0.0000 H   0  0  0  0  0  0  0  0  0  0  0  0
   23.9074  -13.2676    0.0000 O   0  0  0  0  0  0  0  0  0  0  0  0
   22.5614  -14.4213    0.0000 C   0  0  0  0  0  0  0  0  0  0  0  0
   20.7988  -13.4278    0.0000 C   0  0  0  0  0  0  0  0  0  0  0  0
   18.9561  -14.6296    0.0000 O   0  0  0  0  0  0  0  0  0  0  0  0
   17.4498  -13.2195    0.0000 C   0  0  0  0  0  0  0  0  0  0  0  0
   15.9437  -14.6777    0.0000 C   0  0  0  0  0  0  0  0  0  0  0  0
   14.7419  -13.0753    0.0000 N   0  0  0  0  0  0  0  0  0  0  0  0
   13.1875  -14.7257    0.0000 C   0  0  0  0  0  0  0  0  0  0  0  0
   14.8380  -11.2646    0.0000 C   0  0  0  0  0  0  0  0  0  0  0  0
  1  2  1  0  0  0  0
  1 20  1  0  0  0  0
  1 21  1  0  0  0  0
  1 22  1  0  0  0  0
  2  3  2  0  0  0  0
  2  6  1  0  0  0  0
  3  4  1  0  0  0  0
  3 23  1  0  0  0  0
  4  5  1  0  0  0  0
  5  6  2  0  0  0  0
  5 11  1  0  0  0  0
  6  7  1  0  0  0  0
  7  8  2  0  0  0  0
  7  9  1  0  0  0  0
  9 10  1  0  0  0  0
 10 11  2  0  0  0  0
 10 19  1  0  0  0  0
 11 12  1  0  0  0  0
 12 13  2  0  0  0  0
 12 24  1  0  0  0  0
 13 14  1  0  0  0  0
 13 25  1  0  0  0  0
 14 15  2  0  0  0  0
 14 19  1  0  0  0  0
 15 16  1  0  0  0  0
 16 17  2  0  0  0  0
 16 26  1  0  0  0  0
 17 18  1  0  0  0  0
 17 27  1  0  0  0  0
 18 19  2  0  0  0  0
 18 28  1  0  0  0  0
 15 29  1  0  0  0  0
 29 30  1  0  0  0  0
 30 31  1  0  0  0  0
 31 32  1  0  0  0  0
 32 33  1  0  0  0  0
 33 34  1  0  0  0  0
 34 35  1  0  0  0  0
 35 36  1  0  0  0  0
 35 37  1  0  0  0  0
M  END
