3.mol
 OpenBabel11172323233D

 29 32  0  0  0  0  0  0  0  0999 V2000
    1.3773    0.3822   -0.0998 O   0  0  0  0  0  0  0  0  0  0  0  0
    2.5911    0.2854   -0.0854 C   0  0  0  0  0  0  0  0  0  0  0  0
    3.1683   -0.9192   -0.0790 O   0  0  0  0  0  0  0  0  0  0  0  0
    4.5002   -1.0951   -0.0632 C   0  0  0  0  0  0  0  0  0  0  0  0
    5.3667    0.0310   -0.0522 C   0  0  0  0  0  0  0  0  0  0  0  0
    6.7549   -0.1375   -0.0357 C   0  0  0  0  0  0  0  0  0  0  0  0
    7.2995   -1.4229   -0.0298 C   0  0  0  0  0  0  0  0  0  0  0  0
    6.4638   -2.5511   -0.0404 C   0  0  0  0  0  0  0  0  0  0  0  0
    7.0181   -3.8410   -0.0343 C   0  0  0  0  0  0  0  0  0  0  0  0
    6.1874   -4.9638   -0.0448 C   0  0  0  0  0  0  0  0  0  0  0  0
    4.7998   -4.8110   -0.0614 C   0  0  0  0  0  0  0  0  0  0  0  0
    4.2319   -3.5343   -0.0676 C   0  0  0  0  0  0  0  0  0  0  0  0
    5.0529   -2.3912   -0.0572 C   0  0  0  0  0  0  0  0  0  0  0  0
    4.7649    1.2872   -0.0588 C   0  0  0  0  0  0  0  0  0  0  0  0
    5.3422    2.4683   -0.0513 O   0  0  0  0  0  0  0  0  0  0  0  0
    4.3894    3.3848   -0.0622 C   0  0  0  0  0  0  0  0  0  0  0  0
    3.1439    2.7689   -0.0774 C   0  0  0  0  0  0  0  0  0  0  0  0
    1.8097    3.4421   -0.0930 C   0  0  0  0  0  0  0  0  0  0  0  0
    3.4064    1.4168   -0.0750 C   0  0  0  0  0  0  0  0  0  0  0  0
    7.4160    0.7206   -0.0274 H   0  0  0  0  0  0  0  0  0  0  0  0
    8.3771   -1.5359   -0.0169 H   0  0  0  0  0  0  0  0  0  0  0  0
    8.0926   -3.9808   -0.0215 H   0  0  0  0  0  0  0  0  0  0  0  0
    6.6207   -5.9557   -0.0401 H   0  0  0  0  0  0  0  0  0  0  0  0
    4.1616   -5.6852   -0.0694 H   0  0  0  0  0  0  0  0  0  0  0  0
    3.1525   -3.4458   -0.0805 H   0  0  0  0  0  0  0  0  0  0  0  0
    4.5715    4.4513   -0.0595 H   0  0  0  0  0  0  0  0  0  0  0  0
    1.9320    4.5457   -0.0910 H   0  0  0  0  0  0  0  0  0  0  0  0
    1.2308    3.1431    0.8055 H   0  0  0  0  0  0  0  0  0  0  0  0
    1.2524    3.1441   -1.0055 H   0  0  0  0  0  0  0  0  0  0  0  0
  1  2  2  0  0  0  0
  2  3  1  0  0  0  0
  2 19  1  0  0  0  0
  3  4  1  0  0  0  0
  4  5  2  0  0  0  0
  4 13  1  0  0  0  0
  5  6  1  0  0  0  0
  5 14  1  0  0  0  0
  6  7  2  0  0  0  0
  6 20  1  0  0  0  0
  7  8  1  0  0  0  0
  7 21  1  0  0  0  0
  8  9  2  0  0  0  0
  8 13  1  0  0  0  0
  9 10  1  0  0  0  0
  9 22  1  0  0  0  0
 10 11  2  0  0  0  0
 10 23  1  0  0  0  0
 11 12  1  0  0  0  0
 11 24  1  0  0  0  0
 12 13  2  0  0  0  0
 12 25  1  0  0  0  0
 14 15  1  0  0  0  0
 14 19  2  0  0  0  0
 15 16  1  0  0  0  0
 16 17  2  0  0  0  0
 16 26  1  0  0  0  0
 17 18  1  0  0  0  0
 17 19  1  0  0  0  0
 18 27  1  0  0  0  0
 18 28  1  0  0  0  0
 18 29  1  0  0  0  0
M  END
