38.mol
 OpenBabel11172323563D

 29 32  0  0  0  0  0  0  0  0999 V2000
    1.1487    0.6769   -0.0429 O   0  0  0  0  0  0  0  0  0  0  0  0
    2.3329    0.3926   -0.0381 C   0  0  0  0  0  0  0  0  0  0  0  0
    2.8419   -1.2184   -0.0297 S   0  0  0  0  0  0  0  0  0  0  0  0
    4.5469   -1.3798   -0.0238 C   0  0  0  0  0  0  0  0  0  0  0  0
    5.3174   -0.1852   -0.0266 C   0  0  0  0  0  0  0  0  0  0  0  0
    6.7185   -0.2782   -0.0220 C   0  0  0  0  0  0  0  0  0  0  0  0
    7.3528   -1.5191   -0.0147 C   0  0  0  0  0  0  0  0  0  0  0  0
    6.6036   -2.7016   -0.0118 C   0  0  0  0  0  0  0  0  0  0  0  0
    7.2568   -3.9446   -0.0045 C   0  0  0  0  0  0  0  0  0  0  0  0
    6.5178   -5.1280   -0.0016 C   0  0  0  0  0  0  0  0  0  0  0  0
    5.1240   -5.0828   -0.0060 C   0  0  0  0  0  0  0  0  0  0  0  0
    4.4586   -3.8543   -0.0134 C   0  0  0  0  0  0  0  0  0  0  0  0
    5.1856   -2.6441   -0.0164 C   0  0  0  0  0  0  0  0  0  0  0  0
    4.7049    1.0923   -0.0340 C   0  0  0  0  0  0  0  0  0  0  0  0
    5.3664    2.2319   -0.0368 O   0  0  0  0  0  0  0  0  0  0  0  0
    4.5085    3.2309   -0.0437 C   0  0  0  0  0  0  0  0  0  0  0  0
    3.2174    2.7374   -0.0455 C   0  0  0  0  0  0  0  0  0  0  0  0
    1.9622    3.5520   -0.0527 C   0  0  0  0  0  0  0  0  0  0  0  0
    3.3363    1.3596   -0.0393 C   0  0  0  0  0  0  0  0  0  0  0  0
    7.3332    0.6139   -0.0240 H   0  0  0  0  0  0  0  0  0  0  0  0
    8.4360   -1.5534   -0.0112 H   0  0  0  0  0  0  0  0  0  0  0  0
    8.3390   -4.0008   -0.0009 H   0  0  0  0  0  0  0  0  0  0  0  0
    7.0270   -6.0831    0.0041 H   0  0  0  0  0  0  0  0  0  0  0  0
    4.5557   -6.0041   -0.0037 H   0  0  0  0  0  0  0  0  0  0  0  0
    3.3771   -3.8660   -0.0166 H   0  0  0  0  0  0  0  0  0  0  0  0
    4.7914    4.2753   -0.0473 H   0  0  0  0  0  0  0  0  0  0  0  0
    2.2019    4.6363   -0.0566 H   0  0  0  0  0  0  0  0  0  0  0  0
    1.3624    3.3223    0.8525 H   0  0  0  0  0  0  0  0  0  0  0  0
    1.3679    3.3146   -0.9596 H   0  0  0  0  0  0  0  0  0  0  0  0
  1  2  2  0  0  0  0
  2  3  1  0  0  0  0
  2 19  1  0  0  0  0
  3  4  1  0  0  0  0
  4  5  2  0  0  0  0
  4 13  1  0  0  0  0
  5  6  1  0  0  0  0
  5 14  1  0  0  0  0
  6  7  2  0  0  0  0
  6 20  1  0  0  0  0
  7  8  1  0  0  0  0
  7 21  1  0  0  0  0
  8  9  2  0  0  0  0
  8 13  1  0  0  0  0
  9 10  1  0  0  0  0
  9 22  1  0  0  0  0
 10 11  2  0  0  0  0
 10 23  1  0  0  0  0
 11 12  1  0  0  0  0
 11 24  1  0  0  0  0
 12 13  2  0  0  0  0
 12 25  1  0  0  0  0
 14 15  1  0  0  0  0
 14 19  2  0  0  0  0
 15 16  1  0  0  0  0
 16 17  2  0  0  0  0
 16 26  1  0  0  0  0
 17 18  1  0  0  0  0
 17 19  1  0  0  0  0
 18 27  1  0  0  0  0
 18 28  1  0  0  0  0
 18 29  1  0  0  0  0
M  END
