42.mol
 OpenBabel11182300073D

 37 40  0  0  0  0  0  0  0  0999 V2000
    1.0372   -0.3939    0.4321 O   0  0  0  0  0  0  0  0  0  0  0  0
    2.3428   -0.4743    0.3479 N   0  0  0  0  0  0  0  0  0  0  0  0
    3.0508   -1.4208    0.8604 C   0  0  0  0  0  0  0  0  0  0  0  0
    4.3727   -1.3462    0.6786 O   0  0  0  0  0  0  0  0  0  0  0  0
    5.2566   -2.2395    1.1401 C   0  0  0  0  0  0  0  0  0  0  0  0
    4.8058   -3.3488    1.8721 C   0  0  0  0  0  0  0  0  0  0  0  0
    5.7130   -4.2844    2.3574 C   0  0  0  0  0  0  0  0  0  0  0  0
    7.0786   -4.1294    2.1213 C   0  0  0  0  0  0  0  0  0  0  0  0
    7.5909   -3.0299    1.3890 C   0  0  0  0  0  0  0  0  0  0  0  0
    6.6385   -2.0747    0.8964 C   0  0  0  0  0  0  0  0  0  0  0  0
    7.0727   -0.9602    0.1628 C   0  0  0  0  0  0  0  0  0  0  0  0
    8.4174   -0.7658   -0.0954 C   0  0  0  0  0  0  0  0  0  0  0  0
    9.3560   -1.6738    0.3695 C   0  0  0  0  0  0  0  0  0  0  0  0
    8.9924   -2.8159    1.1128 C   0  0  0  0  0  0  0  0  0  0  0  0
   10.2193   -3.6534    1.5045 C   0  0  0  0  0  0  0  0  0  0  0  0
   10.1017   -4.9388    2.3109 C   0  0  0  0  0  0  0  0  0  0  0  0
    3.4357   -3.4596    2.0813 C   0  0  0  0  0  0  0  0  0  0  0  0
    2.8239   -4.4171    2.7360 O   0  0  0  0  0  0  0  0  0  0  0  0
    1.5349   -4.1662    2.7132 C   0  0  0  0  0  0  0  0  0  0  0  0
    1.2872   -2.9931    2.0134 C   0  0  0  0  0  0  0  0  0  0  0  0
   -0.0915   -2.4436    1.8152 C   0  0  0  0  0  0  0  0  0  0  0  0
    2.5415   -2.5284    1.5974 C   0  0  0  0  0  0  0  0  0  0  0  0
    0.5707    0.3465    0.0222 H   0  0  0  0  0  0  0  0  0  0  0  0
    5.3677   -5.1421    2.9231 H   0  0  0  0  0  0  0  0  0  0  0  0
    7.6774   -4.9020    2.5375 H   0  0  0  0  0  0  0  0  0  0  0  0
    6.3709   -0.2280   -0.2178 H   0  0  0  0  0  0  0  0  0  0  0  0
    8.7380    0.0988   -0.6628 H   0  0  0  0  0  0  0  0  0  0  0  0
   10.3978   -1.4768    0.1407 H   0  0  0  0  0  0  0  0  0  0  0  0
   10.7419   -3.9312    0.5620 H   0  0  0  0  0  0  0  0  0  0  0  0
   10.8984   -2.9898    2.0850 H   0  0  0  0  0  0  0  0  0  0  0  0
    9.5203   -5.7015    1.7515 H   0  0  0  0  0  0  0  0  0  0  0  0
    9.6813   -4.7335    3.3178 H   0  0  0  0  0  0  0  0  0  0  0  0
   11.1181   -5.3594    2.4664 H   0  0  0  0  0  0  0  0  0  0  0  0
    0.7897   -4.7973    3.1798 H   0  0  0  0  0  0  0  0  0  0  0  0
   -0.8449   -3.1011    2.2989 H   0  0  0  0  0  0  0  0  0  0  0  0
   -0.3324   -2.4005    0.7330 H   0  0  0  0  0  0  0  0  0  0  0  0
   -0.1732   -1.4415    2.2842 H   0  0  0  0  0  0  0  0  0  0  0  0
  1  2  1  0  0  0  0
  1 23  1  0  0  0  0
  2  3  2  0  0  0  0
  3  4  1  0  0  0  0
  3 22  1  0  0  0  0
  4  5  1  0  0  0  0
  5  6  2  0  0  0  0
  5 10  1  0  0  0  0
  6  7  1  0  0  0  0
  6 17  1  0  0  0  0
  7  8  2  0  0  0  0
  7 24  1  0  0  0  0
  8  9  1  0  0  0  0
  8 25  1  0  0  0  0
  9 10  2  0  0  0  0
  9 14  1  0  0  0  0
 10 11  1  0  0  0  0
 11 12  2  0  0  0  0
 11 26  1  0  0  0  0
 12 13  1  0  0  0  0
 12 27  1  0  0  0  0
 13 14  2  0  0  0  0
 13 28  1  0  0  0  0
 14 15  1  0  0  0  0
 15 16  1  0  0  0  0
 15 29  1  0  0  0  0
 15 30  1  0  0  0  0
 16 31  1  0  0  0  0
 16 32  1  0  0  0  0
 16 33  1  0  0  0  0
 17 18  1  0  0  0  0
 17 22  2  0  0  0  0
 18 19  1  0  0  0  0
 19 20  2  0  0  0  0
 19 34  1  0  0  0  0
 20 21  1  0  0  0  0
 20 22  1  0  0  0  0
 21 35  1  0  0  0  0
 21 36  1  0  0  0  0
 21 37  1  0  0  0  0
M  END
