45.mol
 OpenBabel11182300123D

 32 35  0  0  0  0  0  0  0  0999 V2000
    1.4586    0.4316   -0.4440 O   0  0  0  0  0  0  0  0  0  0  0  0
    2.6671    0.3609   -0.3189 C   0  0  0  0  0  0  0  0  0  0  0  0
    3.2547   -0.8339   -0.2138 O   0  0  0  0  0  0  0  0  0  0  0  0
    4.5802   -0.9924   -0.0726 C   0  0  0  0  0  0  0  0  0  0  0  0
    5.4305    0.1433   -0.0287 C   0  0  0  0  0  0  0  0  0  0  0  0
    6.8134   -0.0066    0.1179 C   0  0  0  0  0  0  0  0  0  0  0  0
    7.3676   -1.2837    0.2226 C   0  0  0  0  0  0  0  0  0  0  0  0
    6.5468   -2.4220    0.1819 C   0  0  0  0  0  0  0  0  0  0  0  0
    7.1101   -3.7036    0.2877 C   0  0  0  0  0  0  0  0  0  0  0  0
    6.2939   -4.8363    0.2472 C   0  0  0  0  0  0  0  0  0  0  0  0
    4.9119   -4.7015    0.1012 C   0  0  0  0  0  0  0  0  0  0  0  0
    4.3353   -3.4332   -0.0054 C   0  0  0  0  0  0  0  0  0  0  0  0
    5.1417   -2.2804    0.0333 C   0  0  0  0  0  0  0  0  0  0  0  0
    4.8205    1.3905   -0.1381 C   0  0  0  0  0  0  0  0  0  0  0  0
    5.3914    2.5734   -0.1251 O   0  0  0  0  0  0  0  0  0  0  0  0
    4.4430    3.4825   -0.2567 C   0  0  0  0  0  0  0  0  0  0  0  0
    3.2013    2.8637   -0.3584 C   0  0  0  0  0  0  0  0  0  0  0  0
    1.8800    3.5630   -0.5237 C   0  0  0  0  0  0  0  0  0  0  0  0
    1.5877    4.4726    0.6659 C   0  0  0  0  0  0  0  0  0  0  0  0
    3.4658    1.5079   -0.2809 C   0  0  0  0  0  0  0  0  0  0  0  0
    7.4633    0.8594    0.1515 H   0  0  0  0  0  0  0  0  0  0  0  0
    8.4408   -1.3823    0.3358 H   0  0  0  0  0  0  0  0  0  0  0  0
    8.1803   -3.8293    0.4016 H   0  0  0  0  0  0  0  0  0  0  0  0
    6.7339   -5.8218    0.3293 H   0  0  0  0  0  0  0  0  0  0  0  0
    4.2850   -5.5833    0.0706 H   0  0  0  0  0  0  0  0  0  0  0  0
    3.2607   -3.3588   -0.1178 H   0  0  0  0  0  0  0  0  0  0  0  0
    4.6250    4.5487   -0.2811 H   0  0  0  0  0  0  0  0  0  0  0  0
    1.0529    2.8320   -0.6137 H   0  0  0  0  0  0  0  0  0  0  0  0
    1.9065    4.1685   -1.4546 H   0  0  0  0  0  0  0  0  0  0  0  0
    1.5412    3.8760    1.6020 H   0  0  0  0  0  0  0  0  0  0  0  0
    0.6103    4.9779    0.5163 H   0  0  0  0  0  0  0  0  0  0  0  0
    2.3742    5.2503    0.7672 H   0  0  0  0  0  0  0  0  0  0  0  0
  1  2  2  0  0  0  0
  2  3  1  0  0  0  0
  2 20  1  0  0  0  0
  3  4  1  0  0  0  0
  4  5  2  0  0  0  0
  4 13  1  0  0  0  0
  5  6  1  0  0  0  0
  5 14  1  0  0  0  0
  6  7  2  0  0  0  0
  6 21  1  0  0  0  0
  7  8  1  0  0  0  0
  7 22  1  0  0  0  0
  8  9  2  0  0  0  0
  8 13  1  0  0  0  0
  9 10  1  0  0  0  0
  9 23  1  0  0  0  0
 10 11  2  0  0  0  0
 10 24  1  0  0  0  0
 11 12  1  0  0  0  0
 11 25  1  0  0  0  0
 12 13  2  0  0  0  0
 12 26  1  0  0  0  0
 14 15  1  0  0  0  0
 14 20  2  0  0  0  0
 15 16  1  0  0  0  0
 16 17  2  0  0  0  0
 16 27  1  0  0  0  0
 17 18  1  0  0  0  0
 17 20  1  0  0  0  0
 18 19  1  0  0  0  0
 18 28  1  0  0  0  0
 18 29  1  0  0  0  0
 19 30  1  0  0  0  0
 19 31  1  0  0  0  0
 19 32  1  0  0  0  0
M  END
