46.mol
 OpenBabel11182300143D

 35 38  0  0  0  0  0  0  0  0999 V2000
    1.2633    0.5793    0.2875 C   0  0  0  0  0  0  0  0  0  0  0  0
    2.7462    0.3196    0.1975 C   0  0  0  0  0  0  0  0  0  0  0  0
    3.6237    1.4160    0.2150 C   0  0  0  0  0  0  0  0  0  0  0  0
    5.0014    1.2280    0.1345 C   0  0  0  0  0  0  0  0  0  0  0  0
    5.5320   -0.0556    0.0349 C   0  0  0  0  0  0  0  0  0  0  0  0
    4.6856   -1.1777    0.0143 C   0  0  0  0  0  0  0  0  0  0  0  0
    5.2231   -2.4776   -0.0865 C   0  0  0  0  0  0  0  0  0  0  0  0
    6.5507   -2.6639   -0.1645 O   0  0  0  0  0  0  0  0  0  0  0  0
    7.1178   -3.8693   -0.2616 C   0  0  0  0  0  0  0  0  0  0  0  0
    8.3293   -3.9644   -0.3277 O   0  0  0  0  0  0  0  0  0  0  0  0
    6.2941   -4.9985   -0.2838 C   0  0  0  0  0  0  0  0  0  0  0  0
    4.9372   -4.8527   -0.2065 C   0  0  0  0  0  0  0  0  0  0  0  0
    4.3407   -6.0224   -0.2430 O   0  0  0  0  0  0  0  0  0  0  0  0
    5.2744   -6.9505   -0.3434 C   0  0  0  0  0  0  0  0  0  0  0  0
    6.5328   -6.3584   -0.3723 C   0  0  0  0  0  0  0  0  0  0  0  0
    7.8453   -7.0843   -0.4841 C   0  0  0  0  0  0  0  0  0  0  0  0
    8.0578   -8.0200    0.7022 C   0  0  0  0  0  0  0  0  0  0  0  0
    4.3500   -3.5937   -0.1054 C   0  0  0  0  0  0  0  0  0  0  0  0
    2.9681   -3.4156   -0.0251 C   0  0  0  0  0  0  0  0  0  0  0  0
    2.4353   -2.1302    0.0747 C   0  0  0  0  0  0  0  0  0  0  0  0
    3.2751   -0.9952    0.0963 C   0  0  0  0  0  0  0  0  0  0  0  0
    1.0357    1.6642    0.3604 H   0  0  0  0  0  0  0  0  0  0  0  0
    0.8484    0.0834    1.1901 H   0  0  0  0  0  0  0  0  0  0  0  0
    0.7566    0.1857   -0.6187 H   0  0  0  0  0  0  0  0  0  0  0  0
    3.2417    2.4266    0.2916 H   0  0  0  0  0  0  0  0  0  0  0  0
    5.6634    2.0844    0.1493 H   0  0  0  0  0  0  0  0  0  0  0  0
    6.6078   -0.1656   -0.0260 H   0  0  0  0  0  0  0  0  0  0  0  0
    5.0706   -8.0118   -0.3959 H   0  0  0  0  0  0  0  0  0  0  0  0
    8.6914   -6.3707   -0.5198 H   0  0  0  0  0  0  0  0  0  0  0  0
    7.8523   -7.6734   -1.4258 H   0  0  0  0  0  0  0  0  0  0  0  0
    8.0703   -7.4402    1.6499 H   0  0  0  0  0  0  0  0  0  0  0  0
    9.0303   -8.5445    0.5924 H   0  0  0  0  0  0  0  0  0  0  0  0
    7.2506   -8.7814    0.7504 H   0  0  0  0  0  0  0  0  0  0  0  0
    2.2997   -4.2681   -0.0395 H   0  0  0  0  0  0  0  0  0  0  0  0
    1.3594   -2.0381    0.1345 H   0  0  0  0  0  0  0  0  0  0  0  0
  1  2  1  0  0  0  0
  1 22  1  0  0  0  0
  1 23  1  0  0  0  0
  1 24  1  0  0  0  0
  2  3  2  0  0  0  0
  2 21  1  0  0  0  0
  3  4  1  0  0  0  0
  3 25  1  0  0  0  0
  4  5  2  0  0  0  0
  4 26  1  0  0  0  0
  5  6  1  0  0  0  0
  5 27  1  0  0  0  0
  6  7  2  0  0  0  0
  6 21  1  0  0  0  0
  7  8  1  0  0  0  0
  7 18  1  0  0  0  0
  8  9  1  0  0  0  0
  9 10  2  0  0  0  0
  9 11  1  0  0  0  0
 11 12  2  0  0  0  0
 11 15  1  0  0  0  0
 12 13  1  0  0  0  0
 12 18  1  0  0  0  0
 13 14  1  0  0  0  0
 14 15  2  0  0  0  0
 14 28  1  0  0  0  0
 15 16  1  0  0  0  0
 16 17  1  0  0  0  0
 16 29  1  0  0  0  0
 16 30  1  0  0  0  0
 17 31  1  0  0  0  0
 17 32  1  0  0  0  0
 17 33  1  0  0  0  0
 18 19  2  0  0  0  0
 19 20  1  0  0  0  0
 19 34  1  0  0  0  0
 20 21  2  0  0  0  0
 20 35  1  0  0  0  0
M  END
