47.mol
 OpenBabel11182300183D

 38 41  0  0  0  0  0  0  0  0999 V2000
    1.5821    0.3036   -0.6664 O   0  0  0  0  0  0  0  0  0  0  0  0
    2.7672    0.2062   -0.4070 C   0  0  0  0  0  0  0  0  0  0  0  0
    3.3255   -1.0020   -0.2954 O   0  0  0  0  0  0  0  0  0  0  0  0
    4.6245   -1.1914   -0.0116 C   0  0  0  0  0  0  0  0  0  0  0  0
    5.4737   -0.0756    0.1874 C   0  0  0  0  0  0  0  0  0  0  0  0
    6.8230   -0.2572    0.4894 C   0  0  0  0  0  0  0  0  0  0  0  0
    7.3481   -1.5453    0.5917 C   0  0  0  0  0  0  0  0  0  0  0  0
    6.5362   -2.6839    0.3890 C   0  0  0  0  0  0  0  0  0  0  0  0
    5.1537   -2.4947    0.0936 C   0  0  0  0  0  0  0  0  0  0  0  0
    4.3221   -3.6127   -0.0859 C   0  0  0  0  0  0  0  0  0  0  0  0
    4.8349   -4.9003    0.0298 C   0  0  0  0  0  0  0  0  0  0  0  0
    6.1825   -5.0978    0.3155 C   0  0  0  0  0  0  0  0  0  0  0  0
    7.0547   -4.0083    0.4883 C   0  0  0  0  0  0  0  0  0  0  0  0
    8.5144   -4.3108    0.7760 C   0  0  0  0  0  0  0  0  0  0  0  0
    9.4164   -3.9644   -0.4119 C   0  0  0  0  0  0  0  0  0  0  0  0
    4.8961    1.1867    0.0727 C   0  0  0  0  0  0  0  0  0  0  0  0
    5.4759    2.3570    0.2129 O   0  0  0  0  0  0  0  0  0  0  0  0
    4.5604    3.2885    0.0194 C   0  0  0  0  0  0  0  0  0  0  0  0
    3.3316    2.6979   -0.2571 C   0  0  0  0  0  0  0  0  0  0  0  0
    2.0469    3.4280   -0.5377 C   0  0  0  0  0  0  0  0  0  0  0  0
    1.6291    4.2822    0.6554 C   0  0  0  0  0  0  0  0  0  0  0  0
    3.5691    1.3356   -0.2192 C   0  0  0  0  0  0  0  0  0  0  0  0
    7.4722    0.5953    0.6496 H   0  0  0  0  0  0  0  0  0  0  0  0
    8.3948   -1.6293    0.8410 H   0  0  0  0  0  0  0  0  0  0  0  0
    3.2687   -3.4967   -0.3098 H   0  0  0  0  0  0  0  0  0  0  0  0
    4.1827   -5.7537   -0.1060 H   0  0  0  0  0  0  0  0  0  0  0  0
    6.5478   -6.1147    0.3909 H   0  0  0  0  0  0  0  0  0  0  0  0
    8.6552   -5.3984    0.9614 H   0  0  0  0  0  0  0  0  0  0  0  0
    8.8369   -3.7833    1.6986 H   0  0  0  0  0  0  0  0  0  0  0  0
    9.1100   -4.5557   -1.3011 H   0  0  0  0  0  0  0  0  0  0  0  0
   10.4675   -4.2220   -0.1636 H   0  0  0  0  0  0  0  0  0  0  0  0
    9.3792   -2.8918   -0.6810 H   0  0  0  0  0  0  0  0  0  0  0  0
    4.7569    4.3512    0.0712 H   0  0  0  0  0  0  0  0  0  0  0  0
    1.2274    2.7171   -0.7602 H   0  0  0  0  0  0  0  0  0  0  0  0
    2.1888    4.0784   -1.4269 H   0  0  0  0  0  0  0  0  0  0  0  0
    1.4670    3.6407    1.5479 H   0  0  0  0  0  0  0  0  0  0  0  0
    0.6818    4.8116    0.4201 H   0  0  0  0  0  0  0  0  0  0  0  0
    2.4077    5.0399    0.8869 H   0  0  0  0  0  0  0  0  0  0  0  0
  1  2  2  0  0  0  0
  2  3  1  0  0  0  0
  2 22  1  0  0  0  0
  3  4  1  0  0  0  0
  4  5  2  0  0  0  0
  4  9  1  0  0  0  0
  5  6  1  0  0  0  0
  5 16  1  0  0  0  0
  6  7  2  0  0  0  0
  6 23  1  0  0  0  0
  7  8  1  0  0  0  0
  7 24  1  0  0  0  0
  8  9  2  0  0  0  0
  8 13  1  0  0  0  0
  9 10  1  0  0  0  0
 10 11  2  0  0  0  0
 10 25  1  0  0  0  0
 11 12  1  0  0  0  0
 11 26  1  0  0  0  0
 12 13  2  0  0  0  0
 12 27  1  0  0  0  0
 13 14  1  0  0  0  0
 14 15  1  0  0  0  0
 14 28  1  0  0  0  0
 14 29  1  0  0  0  0
 15 30  1  0  0  0  0
 15 31  1  0  0  0  0
 15 32  1  0  0  0  0
 16 17  1  0  0  0  0
 16 22  2  0  0  0  0
 17 18  1  0  0  0  0
 18 19  2  0  0  0  0
 18 33  1  0  0  0  0
 19 20  1  0  0  0  0
 19 22  1  0  0  0  0
 20 21  1  0  0  0  0
 20 34  1  0  0  0  0
 20 35  1  0  0  0  0
 21 36  1  0  0  0  0
 21 37  1  0  0  0  0
 21 38  1  0  0  0  0
M  END
