50.mol
 OpenBabel11182300253D

 29 32  0  0  0  0  0  0  0  0999 V2000
    1.3464   -0.4756   -0.0661 O   0  0  0  0  0  0  0  0  0  0  0  0
    2.5454   -0.2620   -0.0631 C   0  0  0  0  0  0  0  0  0  0  0  0
    3.4116   -1.2793   -0.0641 O   0  0  0  0  0  0  0  0  0  0  0  0
    4.7446   -1.1077   -0.0610 C   0  0  0  0  0  0  0  0  0  0  0  0
    5.2937    0.2034   -0.0565 C   0  0  0  0  0  0  0  0  0  0  0  0
    6.6786    0.3968   -0.0532 C   0  0  0  0  0  0  0  0  0  0  0  0
    7.5346   -0.7059   -0.0544 C   0  0  0  0  0  0  0  0  0  0  0  0
    7.0163   -2.0109   -0.0589 C   0  0  0  0  0  0  0  0  0  0  0  0
    7.8831   -3.1153   -0.0601 C   0  0  0  0  0  0  0  0  0  0  0  0
    7.3683   -4.4137   -0.0645 C   0  0  0  0  0  0  0  0  0  0  0  0
    5.9878   -4.6221   -0.0677 C   0  0  0  0  0  0  0  0  0  0  0  0
    5.1112   -3.5339   -0.0666 C   0  0  0  0  0  0  0  0  0  0  0  0
    5.6114   -2.2185   -0.0622 C   0  0  0  0  0  0  0  0  0  0  0  0
    4.3893    1.2628   -0.0555 C   0  0  0  0  0  0  0  0  0  0  0  0
    4.6398    2.5523   -0.0515 O   0  0  0  0  0  0  0  0  0  0  0  0
    3.4759    3.1794   -0.0522 C   0  0  0  0  0  0  0  0  0  0  0  0
    3.3276    4.6632   -0.0485 C   0  0  0  0  0  0  0  0  0  0  0  0
    2.4281    2.2665   -0.0567 C   0  0  0  0  0  0  0  0  0  0  0  0
    3.0437    1.0376   -0.0587 C   0  0  0  0  0  0  0  0  0  0  0  0
    7.0974    1.3959   -0.0498 H   0  0  0  0  0  0  0  0  0  0  0  0
    8.6053   -0.5388   -0.0519 H   0  0  0  0  0  0  0  0  0  0  0  0
    8.9575   -2.9747   -0.0576 H   0  0  0  0  0  0  0  0  0  0  0  0
    8.0416   -5.2612   -0.0653 H   0  0  0  0  0  0  0  0  0  0  0  0
    5.5953   -5.6309   -0.0712 H   0  0  0  0  0  0  0  0  0  0  0  0
    4.0452   -3.7255   -0.0693 H   0  0  0  0  0  0  0  0  0  0  0  0
    4.3275    5.1452   -0.0452 H   0  0  0  0  0  0  0  0  0  0  0  0
    2.7692    4.9803    0.8568 H   0  0  0  0  0  0  0  0  0  0  0  0
    2.7728    4.9852   -0.9543 H   0  0  0  0  0  0  0  0  0  0  0  0
    1.3664    2.4764   -0.0582 H   0  0  0  0  0  0  0  0  0  0  0  0
  1  2  2  0  0  0  0
  2  3  1  0  0  0  0
  2 19  1  0  0  0  0
  3  4  1  0  0  0  0
  4  5  2  0  0  0  0
  4 13  1  0  0  0  0
  5  6  1  0  0  0  0
  5 14  1  0  0  0  0
  6  7  2  0  0  0  0
  6 20  1  0  0  0  0
  7  8  1  0  0  0  0
  7 21  1  0  0  0  0
  8  9  2  0  0  0  0
  8 13  1  0  0  0  0
  9 10  1  0  0  0  0
  9 22  1  0  0  0  0
 10 11  2  0  0  0  0
 10 23  1  0  0  0  0
 11 12  1  0  0  0  0
 11 24  1  0  0  0  0
 12 13  2  0  0  0  0
 12 25  1  0  0  0  0
 14 15  1  0  0  0  0
 14 19  2  0  0  0  0
 15 16  1  0  0  0  0
 16 17  1  0  0  0  0
 16 18  2  0  0  0  0
 17 26  1  0  0  0  0
 17 27  1  0  0  0  0
 17 28  1  0  0  0  0
 18 19  1  0  0  0  0
 18 29  1  0  0  0  0
M  END
