51.mol
 OpenBabel11182300273D

 35 38  0  0  0  0  0  0  0  0999 V2000
    1.3409    0.5457   -0.0951 C   0  0  0  0  0  0  0  0  0  0  0  0
    2.8165    0.3267   -0.0732 C   0  0  0  0  0  0  0  0  0  0  0  0
    3.4546   -0.9086   -0.0539 C   0  0  0  0  0  0  0  0  0  0  0  0
    4.7943   -0.6022   -0.0384 C   0  0  0  0  0  0  0  0  0  0  0  0
    5.9388   -1.3923   -0.0160 C   0  0  0  0  0  0  0  0  0  0  0  0
    5.8642   -2.6079   -0.0066 O   0  0  0  0  0  0  0  0  0  0  0  0
    7.1307   -0.7890   -0.0051 O   0  0  0  0  0  0  0  0  0  0  0  0
    7.2811    0.5480   -0.0146 C   0  0  0  0  0  0  0  0  0  0  0  0
    6.1407    1.3833   -0.0372 C   0  0  0  0  0  0  0  0  0  0  0  0
    6.2830    2.7648   -0.0472 C   0  0  0  0  0  0  0  0  0  0  0  0
    7.5532    3.3403   -0.0350 C   0  0  0  0  0  0  0  0  0  0  0  0
    8.7332    2.5549   -0.0122 C   0  0  0  0  0  0  0  0  0  0  0  0
    8.5688    1.1279   -0.0021 C   0  0  0  0  0  0  0  0  0  0  0  0
    9.6927    0.2885    0.0204 C   0  0  0  0  0  0  0  0  0  0  0  0
   10.9696    0.8195    0.0331 C   0  0  0  0  0  0  0  0  0  0  0  0
   11.1546    2.1932    0.0238 C   0  0  0  0  0  0  0  0  0  0  0  0
   10.0721    3.0970    0.0013 C   0  0  0  0  0  0  0  0  0  0  0  0
   10.5513    4.5567   -0.0048 C   0  0  0  0  0  0  0  0  0  0  0  0
    9.5828    5.7305   -0.0280 C   0  0  0  0  0  0  0  0  0  0  0  0
    4.8959    0.7574   -0.0487 C   0  0  0  0  0  0  0  0  0  0  0  0
    3.7030    1.3073   -0.0696 O   0  0  0  0  0  0  0  0  0  0  0  0
    0.8007   -0.4246   -0.0940 H   0  0  0  0  0  0  0  0  0  0  0  0
    1.0652    1.1119   -1.0087 H   0  0  0  0  0  0  0  0  0  0  0  0
    1.0407    1.1275    0.8009 H   0  0  0  0  0  0  0  0  0  0  0  0
    2.9998   -1.8906   -0.0516 H   0  0  0  0  0  0  0  0  0  0  0  0
    5.4090    3.4057   -0.0646 H   0  0  0  0  0  0  0  0  0  0  0  0
    7.5426    4.4026   -0.0443 H   0  0  0  0  0  0  0  0  0  0  0  0
    9.5905   -0.7899    0.0283 H   0  0  0  0  0  0  0  0  0  0  0  0
   11.8278    0.1596    0.0504 H   0  0  0  0  0  0  0  0  0  0  0  0
   12.1754    2.5598    0.0345 H   0  0  0  0  0  0  0  0  0  0  0  0
   11.1816    4.6992    0.9013 H   0  0  0  0  0  0  0  0  0  0  0  0
   11.2060    4.6837   -0.8958 H   0  0  0  0  0  0  0  0  0  0  0  0
    8.9550    5.7398    0.8877 H   0  0  0  0  0  0  0  0  0  0  0  0
    8.9801    5.7238   -0.9605 H   0  0  0  0  0  0  0  0  0  0  0  0
   10.1652    6.6765   -0.0283 H   0  0  0  0  0  0  0  0  0  0  0  0
  1  2  1  0  0  0  0
  1 22  1  0  0  0  0
  1 23  1  0  0  0  0
  1 24  1  0  0  0  0
  2  3  2  0  0  0  0
  2 21  1  0  0  0  0
  3  4  1  0  0  0  0
  3 25  1  0  0  0  0
  4  5  1  0  0  0  0
  4 20  2  0  0  0  0
  5  6  2  0  0  0  0
  5  7  1  0  0  0  0
  7  8  1  0  0  0  0
  8  9  2  0  0  0  0
  8 13  1  0  0  0  0
  9 10  1  0  0  0  0
  9 20  1  0  0  0  0
 10 11  2  0  0  0  0
 10 26  1  0  0  0  0
 11 12  1  0  0  0  0
 11 27  1  0  0  0  0
 12 13  2  0  0  0  0
 12 17  1  0  0  0  0
 13 14  1  0  0  0  0
 14 15  2  0  0  0  0
 14 28  1  0  0  0  0
 15 16  1  0  0  0  0
 15 29  1  0  0  0  0
 16 17  2  0  0  0  0
 16 30  1  0  0  0  0
 17 18  1  0  0  0  0
 18 19  1  0  0  0  0
 18 31  1  0  0  0  0
 18 32  1  0  0  0  0
 19 33  1  0  0  0  0
 19 34  1  0  0  0  0
 19 35  1  0  0  0  0
 20 21  1  0  0  0  0
M  END
