
  ACD/LABS07292514202D

 46 50  0  0  0  0  0  0  0  0  1 V2000
   17.4790   -4.3632    0.0000 C   0  0  0  0  0  0  0  0  0  0  0  0
   18.2948   -4.0968    0.0000 C   0  0  0  0  0  0  0  0  0  0  0  0
   18.9278   -4.6677    0.0000 C   0  0  0  0  0  0  0  0  0  0  0  0
   18.7531   -5.5074    0.0000 C   0  0  0  0  0  0  0  0  0  0  0  0
   17.9373   -5.7738    0.0000 C   0  0  0  0  0  0  0  0  0  0  0  0
   17.2964   -5.2008    0.0000 C   0  0  0  0  0  0  0  0  0  0  0  0
   19.3890   -6.0833    0.0000 C   0  0  0  0  0  0  0  0  0  0  0  0
   20.2277   -5.9025    0.0000 C   0  0  0  0  0  0  0  0  0  0  0  0
   20.6463   -5.1660    0.0000 C   0  0  0  0  0  0  0  0  0  0  0  0
   20.3524   -4.3599    0.0000 O   0  0  0  0  0  0  0  0  0  0  0  0
   21.5037   -5.1658    0.0000 O   0  0  0  0  0  0  0  0  0  0  0  0
   21.9291   -5.9027    0.0000 C   0  0  0  0  0  0  0  0  0  0  0  0
   21.5002   -6.6450    0.0000 C   0  0  0  0  0  0  0  0  0  0  0  0
   21.9285   -7.3869    0.0000 C   0  0  0  0  0  0  0  0  0  0  0  0
   22.7859   -7.3866    0.0000 C   0  0  0  0  0  0  0  0  0  0  0  0
   23.2145   -6.6444    0.0000 C   0  0  0  0  0  0  0  0  0  0  0  0
   22.7862   -5.9026    0.0000 C   0  0  0  0  0  0  0  0  0  0  0  0
   23.2151   -5.1602    0.0000 C   0  0  0  0  0  0  0  0  0  0  0  0
   24.0725   -5.1599    0.0000 C   0  0  0  0  0  0  0  0  0  0  0  0
   24.5008   -5.9018    0.0000 C   0  0  0  0  0  0  0  0  0  0  0  0
   24.0719   -6.6441    0.0000 C   0  0  0  0  0  0  0  0  0  0  0  0
   24.5002   -7.3860    0.0000 C   0  0  0  0  0  0  0  0  0  0  0  0
   24.9287   -8.1281    0.0000 C   0  0  0  0  0  0  0  0  0  0  0  0
   20.6531   -6.6394    0.0000 C   0  0  0  0  0  0  0  0  0  0  0  0
   20.0772   -7.2753    0.0000 O   0  0  0  0  0  0  0  0  0  0  0  0
   19.2961   -6.9281    0.0000 C   0  0  0  0  0  0  0  0  0  0  0  0
   18.6384   -7.4792    0.0000 C   0  0  0  0  0  0  0  0  0  0  0  0
   18.4695   -3.2571    0.0000 H   0  0  0  0  0  0  0  0  0  0  0  0
   19.7465   -4.4063    0.0000 H   0  0  0  0  0  0  0  0  0  0  0  0
   17.6164   -6.5659    0.0000 H   0  0  0  0  0  0  0  0  0  0  0  0
   16.4856   -5.4643    0.0000 O   0  0  0  0  0  0  0  0  0  0  0  0
   21.5099   -8.1233    0.0000 H   0  0  0  0  0  0  0  0  0  0  0  0
   23.2142   -8.1285    0.0000 H   0  0  0  0  0  0  0  0  0  0  0  0
   22.7897   -4.4233    0.0000 H   0  0  0  0  0  0  0  0  0  0  0  0
   24.5014   -4.4176    0.0000 H   0  0  0  0  0  0  0  0  0  0  0  0
   25.3581   -5.9015    0.0000 H   0  0  0  0  0  0  0  0  0  0  0  0
   25.2423   -6.9575    0.0000 H   0  0  0  0  0  0  0  0  0  0  0  0
   23.7583   -7.8143    0.0000 H   0  0  0  0  0  0  0  0  0  0  0  0
   24.1868   -8.5564    0.0000 H   0  0  0  0  0  0  0  0  0  0  0  0
   25.6708   -7.6996    0.0000 H   0  0  0  0  0  0  0  0  0  0  0  0
   25.3571   -8.8702    0.0000 H   0  0  0  0  0  0  0  0  0  0  0  0
   18.0902   -6.8265    0.0000 H   0  0  0  0  0  0  0  0  0  0  0  0
   19.1897   -8.1372    0.0000 H   0  0  0  0  0  0  0  0  0  0  0  0
   17.9805   -8.0305    0.0000 H   0  0  0  0  0  0  0  0  0  0  0  0
   15.1268   -5.5123    0.0000 C   0  0  0  0  0  0  0  0  0  0  0  0
   16.8253   -3.9099    0.0000 H   0  0  0  0  0  0  0  0  0  0  0  0
  1  2  2  0  0  0  0
  1  6  1  0  0  0  0
  2  3  1  0  0  0  0
  2 28  1  0  0  0  0
  3  4  2  0  0  0  0
  3 29  1  0  0  0  0
  4  5  1  0  0  0  0
  4  7  1  0  0  0  0
  5  6  2  0  0  0  0
  5 30  1  0  0  0  0
  6 31  1  0  0  0  0
  7  8  1  0  0  0  0
  7 26  2  0  0  0  0
  8  9  1  0  0  0  0
  8 24  2  0  0  0  0
  9 10  2  0  0  0  0
  9 11  1  0  0  0  0
 11 12  1  0  0  0  0
 12 13  2  0  0  0  0
 12 17  1  0  0  0  0
 13 14  1  0  0  0  0
 13 24  1  0  0  0  0
 14 15  2  0  0  0  0
 14 32  1  0  0  0  0
 15 16  1  0  0  0  0
 15 33  1  0  0  0  0
 16 17  2  0  0  0  0
 16 21  1  0  0  0  0
 17 18  1  0  0  0  0
 18 19  2  0  0  0  0
 18 34  1  0  0  0  0
 19 20  1  0  0  0  0
 19 35  1  0  0  0  0
 20 21  2  0  0  0  0
 20 36  1  0  0  0  0
 21 22  1  0  0  0  0
 22 23  1  0  0  0  0
 22 37  1  0  0  0  0
 22 38  1  0  0  0  0
 23 39  1  0  0  0  0
 23 40  1  0  0  0  0
 23 41  1  0  0  0  0
 24 25  1  0  0  0  0
 25 26  1  0  0  0  0
 26 27  1  0  0  0  0
 27 42  1  0  0  0  0
 27 43  1  0  0  0  0
 27 44  1  0  0  0  0
 31 45  1  0  0  0  0
  1 46  1  0  0  0  0
M  END
